Version 4
SHEET 1 880 720
WIRE 128 16 -16 16
WIRE 128 48 -16 48
WIRE 128 80 -16 80
WIRE 736 80 288 80
WIRE 128 112 -16 112
WIRE 320 112 288 112
WIRE 128 144 -16 144
WIRE 416 144 288 144
WIRE 128 176 -16 176
WIRE 528 176 288 176
WIRE -336 208 -480 208
WIRE 128 208 -16 208
WIRE 640 208 288 208
WIRE -336 240 -480 240
WIRE 128 240 -16 240
WIRE -336 272 -480 272
WIRE 128 272 -176 272
WIRE -336 304 -480 304
WIRE -96 304 -176 304
WIRE -336 336 -480 336
WIRE 16 336 -176 336
WIRE -336 368 -480 368
WIRE 128 368 -176 368
WIRE -336 400 -480 400
WIRE 224 400 -176 400
WIRE -336 432 -480 432
WIRE -336 464 -480 464
WIRE -96 592 -96 304
WIRE 16 592 16 336
WIRE 128 592 128 368
WIRE 224 592 224 400
WIRE 320 592 320 112
WIRE 416 592 416 144
WIRE 528 592 528 176
WIRE 640 592 640 208
WIRE 736 592 736 80
FLAG -480 208 A0
IOPIN -480 208 In
FLAG -480 240 A1
IOPIN -480 240 In
FLAG -480 272 A2
IOPIN -480 272 In
FLAG -480 304 A3
IOPIN -480 304 In
FLAG -16 16 A4
IOPIN -16 16 In
FLAG -16 48 A5
IOPIN -16 48 In
FLAG -16 80 A6
IOPIN -16 80 In
FLAG -16 112 A7
IOPIN -16 112 In
FLAG -16 144 B4
IOPIN -16 144 In
FLAG -16 176 B5
IOPIN -16 176 In
FLAG -16 208 B6
IOPIN -16 208 In
FLAG -16 240 B7
IOPIN -16 240 In
FLAG -480 336 B0
IOPIN -480 336 In
FLAG -480 368 B1
IOPIN -480 368 In
FLAG -480 400 B2
IOPIN -480 400 In
FLAG -480 432 B3
IOPIN -480 432 In
FLAG -480 464 Zero
IOPIN -480 464 In
FLAG -96 592 S0
IOPIN -96 592 Out
FLAG 16 592 S1
IOPIN 16 592 Out
FLAG 128 592 S2
IOPIN 128 592 Out
FLAG 224 592 S3
IOPIN 224 592 Out
FLAG 320 592 S4
IOPIN 320 592 Out
FLAG 416 592 S5
IOPIN 416 592 Out
FLAG 528 592 S6
IOPIN 528 592 Out
FLAG 640 592 S7
IOPIN 640 592 Out
FLAG 736 592 C_out
IOPIN 736 592 Out
SYMBOL 4-bit_Adder 176 144 R0
SYMATTR InstName X2
SYMBOL 4-bit_Adder -288 336 R0
SYMATTR InstName X1
