Version 4
SHEET 1 2160 1016
WIRE 1488 -368 1488 -384
WIRE 592 -32 464 -32
WIRE -448 -16 -624 -16
WIRE 208 0 112 0
WIRE 592 0 464 0
WIRE -448 16 -496 16
WIRE 112 32 112 0
WIRE 208 32 112 32
WIRE 592 32 464 32
WIRE -496 48 -496 16
WIRE -496 48 -624 48
WIRE -448 48 -496 48
WIRE -112 48 -160 48
WIRE -112 64 -112 48
WIRE -80 64 -112 64
WIRE 112 64 112 32
WIRE 112 64 -16 64
WIRE 208 64 112 64
WIRE 592 64 464 64
WIRE 896 64 752 64
WIRE -496 80 -496 48
WIRE -448 80 -496 80
WIRE -80 96 -160 96
WIRE 112 96 112 64
WIRE 208 96 112 96
WIRE 592 96 368 96
WIRE 896 96 752 96
WIRE -448 112 -624 112
WIRE 208 128 176 128
WIRE 592 128 368 128
WIRE 896 128 752 128
WIRE -448 144 -496 144
WIRE 176 144 176 128
WIRE 176 144 -160 144
WIRE 208 160 112 160
WIRE 592 160 368 160
WIRE 896 160 752 160
WIRE -496 176 -496 144
WIRE -496 176 -624 176
WIRE -448 176 -496 176
WIRE 112 192 112 160
WIRE 112 192 64 192
WIRE 208 192 112 192
WIRE 592 192 368 192
WIRE -496 208 -496 176
WIRE -448 208 -496 208
WIRE 112 224 112 192
WIRE 208 224 112 224
WIRE 112 256 112 224
WIRE 208 256 112 256
FLAG -624 -16 T0
IOPIN -624 -16 In
FLAG -624 48 T1
IOPIN -624 48 In
FLAG -624 112 X0
IOPIN -624 112 In
FLAG -624 176 X1
IOPIN -624 176 In
FLAG 64 192 Zero
IOPIN 64 192 In
FLAG 464 -32 W0
IOPIN 464 -32 In
FLAG 464 0 W1
IOPIN 464 0 In
FLAG 464 32 W2
IOPIN 464 32 In
FLAG 464 64 W3
IOPIN 464 64 In
FLAG 896 64 W0_Out
IOPIN 896 64 Out
FLAG 896 96 W1_Out
IOPIN 896 96 Out
FLAG 896 128 W2_Out
IOPIN 896 128 Out
FLAG 896 160 W3_Out
IOPIN 896 160 Out
FLAG 1264 -192 0
FLAG 1712 -208 0
FLAG 1280 16 0
FLAG 1728 16 0
FLAG 1488 -368 0
FLAG 1728 528 0
FLAG 1296 528 0
FLAG 1728 304 0
FLAG 1296 304 0
FLAG 1264 -272 T0
IOPIN 1264 -272 Out
FLAG 1712 -288 T1
IOPIN 1712 -288 Out
FLAG 1280 -64 X0
IOPIN 1280 -64 Out
FLAG 1728 -64 X1
IOPIN 1728 -64 Out
FLAG 1488 -464 Zer0
IOPIN 1488 -464 Out
FLAG 1728 448 W3
IOPIN 1728 448 Out
FLAG 1296 448 W2
IOPIN 1296 448 Out
FLAG 1728 224 W1
IOPIN 1728 224 Out
FLAG 1296 224 W0
IOPIN 1296 224 Out
SYMBOL Digital\\or -48 16 R0
SYMATTR InstName A1
SYMBOL voltage 1264 -288 R0
WINDOW 3 -177 133 Left 2
WINDOW 123 0 0 Left 0
WINDOW 39 0 0 Left 0
SYMATTR Value PULSE(0 5 0 1ns 1ns 10ms 10ms)
SYMATTR InstName V1
SYMBOL voltage 1712 -304 R0
WINDOW 3 -153 148 Left 2
WINDOW 123 0 0 Left 0
WINDOW 39 0 0 Left 0
SYMATTR Value PULSE(0 5 0 1ns 1ns 10ms 20ms)
SYMATTR InstName V2
SYMBOL voltage 1280 -80 R0
WINDOW 3 -173 139 Left 2
WINDOW 123 0 0 Left 0
WINDOW 39 0 0 Left 0
SYMATTR Value PULSE(0 5 0 1ns 1ns 10ms 10ms)
SYMATTR InstName V3
SYMBOL voltage 1728 -80 R0
WINDOW 3 -161 144 Left 2
WINDOW 123 0 0 Left 0
WINDOW 39 0 0 Left 0
SYMATTR Value PULSE(0 5 0 1ns 1ns 20ms 40ms)
SYMATTR InstName V4
SYMBOL voltage 1488 -480 R0
WINDOW 123 0 0 Left 0
WINDOW 39 0 0 Left 0
SYMATTR InstName V5
SYMATTR Value 0
SYMBOL voltage 1296 208 R0
WINDOW 123 0 0 Left 0
WINDOW 39 0 0 Left 0
SYMATTR InstName V6
SYMATTR Value 0
SYMBOL voltage 1728 208 R0
WINDOW 123 0 0 Left 0
WINDOW 39 0 0 Left 0
SYMATTR InstName V7
SYMATTR Value 1
SYMBOL voltage 1296 432 R0
WINDOW 123 0 0 Left 0
WINDOW 39 0 0 Left 0
WINDOW 3 24 101 Left 2
SYMATTR Value 0
SYMATTR InstName V8
SYMBOL voltage 1728 432 R0
WINDOW 123 0 0 Left 0
WINDOW 39 0 0 Left 0
SYMATTR InstName V9
SYMATTR Value 0
SYMBOL 4-bit_comparator -336 96 R0
WINDOW 0 32 -128 Bottom 2
SYMATTR InstName 4-bit_comparator
SYMBOL 4-bit_Adder 256 128 R0
SYMATTR InstName 4-bit_Adder_1
SYMBOL 4-bit_Adder 640 96 R0
SYMATTR InstName 4-bit_Adder_2
TEXT 1464 600 Left 2 !.tran 40ms
