Version 4
SHEET 1 4052 1228
WIRE 0 64 -80 64
WIRE 0 96 -80 96
WIRE 768 96 320 96
WIRE 0 128 -80 128
WIRE 768 128 320 128
WIRE 0 160 -80 160
WIRE 768 160 320 160
WIRE 0 192 -80 192
WIRE 768 192 320 192
WIRE 0 224 -80 224
WIRE 768 224 320 224
WIRE 0 256 -80 256
WIRE 768 256 320 256
WIRE 1328 256 1040 256
WIRE 0 288 -80 288
WIRE 768 288 320 288
WIRE 1328 288 1040 288
WIRE 0 320 -80 320
WIRE 768 320 320 320
WIRE 1328 320 1040 320
WIRE 768 352 464 352
WIRE 1328 352 1040 352
WIRE 768 384 480 384
WIRE 1328 384 1040 384
WIRE 768 416 496 416
WIRE 1328 416 1040 416
WIRE 1712 416 1600 416
WIRE 1712 432 1616 432
WIRE 1856 432 1776 432
WIRE 768 448 512 448
WIRE 1328 448 1040 448
WIRE 1616 448 1616 432
WIRE 1616 448 1600 448
WIRE 1712 448 1648 448
WIRE 0 464 -80 464
WIRE 1712 464 1680 464
WIRE 768 480 528 480
WIRE 1328 480 1040 480
WIRE 1648 480 1648 448
WIRE 1648 480 1600 480
WIRE 1856 480 1856 432
WIRE 1984 480 1856 480
WIRE 2144 480 2048 480
WIRE 0 496 -80 496
WIRE 464 496 464 352
WIRE 464 496 320 496
WIRE 768 512 544 512
WIRE 1328 512 1248 512
WIRE 1680 512 1680 464
WIRE 1680 512 1600 512
WIRE 1984 512 1856 512
WIRE 2496 512 2048 512
WIRE 0 528 -80 528
WIRE 480 528 480 384
WIRE 480 528 320 528
WIRE 768 544 560 544
WIRE 1328 544 1248 544
WIRE 1728 544 1600 544
WIRE 0 560 -80 560
WIRE 496 560 496 416
WIRE 496 560 320 560
WIRE 1856 560 1856 512
WIRE 1856 560 1792 560
WIRE 768 576 576 576
WIRE 1328 576 1248 576
WIRE 1728 576 1600 576
WIRE 0 592 -80 592
WIRE 512 592 512 448
WIRE 512 592 320 592
WIRE 1728 592 1632 592
WIRE 768 608 688 608
WIRE 1328 608 1248 608
WIRE 1632 608 1632 592
WIRE 1632 608 1600 608
WIRE 1728 608 1664 608
WIRE 0 624 -80 624
WIRE 528 624 528 480
WIRE 528 624 320 624
WIRE 2144 624 2144 480
WIRE 2256 624 2144 624
WIRE 2496 624 2320 624
WIRE 1328 640 1248 640
WIRE 1664 640 1664 608
WIRE 1664 640 1600 640
WIRE 1968 640 1664 640
WIRE 2256 640 1968 640
WIRE 0 656 -80 656
WIRE 544 656 544 512
WIRE 544 656 320 656
WIRE 1328 672 1248 672
WIRE 0 688 -80 688
WIRE 560 688 560 544
WIRE 560 688 320 688
WIRE 1328 704 1248 704
WIRE 0 720 -80 720
WIRE 576 720 576 576
WIRE 576 720 320 720
WIRE 1328 736 1248 736
WIRE 1328 768 1248 768
WIRE 2144 784 2144 624
WIRE 2256 784 2144 784
WIRE 2496 784 2320 784
WIRE 1968 816 1968 640
WIRE 2080 816 1968 816
WIRE 2256 816 2144 816
FLAG -80 96 One
IOPIN -80 96 In
FLAG -80 128 Zero
IOPIN -80 128 In
FLAG -80 160 Zero
IOPIN -80 160 In
FLAG -80 64 Zero
IOPIN -80 64 In
FLAG -80 192 One
IOPIN -80 192 In
FLAG -80 224 X0
IOPIN -80 224 In
FLAG -80 256 X1
IOPIN -80 256 In
FLAG -80 288 X2
IOPIN -80 288 In
FLAG -80 320 X3
IOPIN -80 320 In
FLAG -80 496 Zero
IOPIN -80 496 In
FLAG -80 528 One
IOPIN -80 528 In
FLAG -80 560 One
IOPIN -80 560 In
FLAG -80 464 Zero
IOPIN -80 464 In
FLAG -80 592 One
IOPIN -80 592 In
FLAG -80 624 Y0
IOPIN -80 624 In
FLAG -80 656 Y1
IOPIN -80 656 In
FLAG -80 688 Y2
IOPIN -80 688 In
FLAG -80 720 Y3
IOPIN -80 720 In
FLAG 688 608 Zero
IOPIN 688 608 In
FLAG 1248 512 Zero
IOPIN 1248 512 In
FLAG 1248 544 Zero
IOPIN 1248 544 In
FLAG 1248 576 One
IOPIN 1248 576 In
FLAG 1248 608 One
IOPIN 1248 608 In
FLAG 1248 640 One
IOPIN 1248 640 In
FLAG 1248 672 One
IOPIN 1248 672 In
FLAG 1248 704 One
IOPIN 1248 704 In
FLAG 1248 736 One
IOPIN 1248 736 In
FLAG 1248 768 Zero
IOPIN 1248 768 In
FLAG 2496 512 Point_on_the_line
IOPIN 2496 512 Out
FLAG 2496 624 Point_above_the_line
IOPIN 2496 624 Out
FLAG 2496 784 Point_below_the_line
IOPIN 2496 784 Out
FLAG 3552 544 0
FLAG 3408 544 0
FLAG 3280 544 0
FLAG 3152 544 0
FLAG 3152 896 0
FLAG 3280 896 0
FLAG 3424 896 0
FLAG 3536 896 0
FLAG 3552 464 X0
IOPIN 3552 464 Out
FLAG 3408 464 X1
IOPIN 3408 464 Out
FLAG 3280 464 X2
IOPIN 3280 464 Out
FLAG 3152 464 X3
IOPIN 3152 464 Out
FLAG 3152 816 Y3
IOPIN 3152 816 Out
FLAG 3280 816 Y2
IOPIN 3280 816 Out
FLAG 3424 816 Y1
IOPIN 3424 816 Out
FLAG 3536 816 Y0
IOPIN 3536 816 Out
FLAG 3232 160 0
FLAG 3440 160 0
FLAG 3232 80 Zero
IOPIN 3232 80 Out
FLAG 3440 80 One
IOPIN 3440 80 Out
SYMBOL Digital\\or 1744 384 R0
SYMATTR InstName A1
SYMBOL Digital\\or 1760 512 R0
SYMATTR InstName A2
SYMBOL Digital\\or 2016 432 R0
SYMATTR InstName A3
SYMBOL Digital\\and 2288 576 R0
SYMATTR InstName A4
SYMBOL Digital\\and 2288 736 R0
SYMATTR InstName A5
SYMBOL Digital\\inv 2080 752 R0
SYMATTR InstName A6
SYMBOL voltage 3552 448 R0
WINDOW 123 0 0 Left 0
WINDOW 39 0 0 Left 0
SYMATTR InstName V1
SYMATTR Value 0
SYMBOL voltage 3408 448 R0
WINDOW 123 0 0 Left 0
WINDOW 39 0 0 Left 0
SYMATTR InstName V2
SYMATTR Value 1
SYMBOL voltage 3280 448 R0
WINDOW 123 0 0 Left 0
WINDOW 39 0 0 Left 0
SYMATTR InstName V3
SYMATTR Value 0
SYMBOL voltage 3152 448 R0
WINDOW 123 0 0 Left 0
WINDOW 39 0 0 Left 0
SYMATTR InstName V4
SYMATTR Value 0
SYMBOL voltage 3152 800 R0
WINDOW 123 0 0 Left 0
WINDOW 39 0 0 Left 0
SYMATTR InstName V5
SYMATTR Value 1
SYMBOL voltage 3280 800 R0
WINDOW 123 0 0 Left 0
WINDOW 39 0 0 Left 0
SYMATTR InstName V6
SYMATTR Value 1
SYMBOL voltage 3424 800 R0
WINDOW 123 0 0 Left 0
WINDOW 39 0 0 Left 0
SYMATTR InstName V7
SYMATTR Value 1
SYMBOL voltage 3536 800 R0
WINDOW 123 0 0 Left 0
WINDOW 39 0 0 Left 0
SYMATTR InstName V8
SYMATTR Value 0
SYMBOL voltage 3232 64 R0
WINDOW 123 0 0 Left 0
WINDOW 39 0 0 Left 0
SYMATTR InstName V9
SYMATTR Value 0
SYMBOL voltage 3440 64 R0
WINDOW 123 0 0 Left 0
WINDOW 39 0 0 Left 0
SYMATTR InstName V10
SYMATTR Value 1
SYMBOL Bough_Wooley_Multiplier 128 144 R0
SYMATTR InstName ax
SYMBOL Bough_Wooley_Multiplier 128 544 R0
SYMATTR InstName by
SYMBOL 8-bit_Adder 832 352 R0
SYMATTR InstName ax+by
SYMBOL 8-bit_Adder 1392 512 R0
SYMATTR InstName ax+by+c
TEXT -48 -136 Left 6 ;Check if the given point (x, y) is above, below or on the line 2x-4y-4 = 0
TEXT 3240 328 Left 6 ;X = 2
TEXT 3248 672 Left 6 ;Y = -2
TEXT 3322 960 Left 2 !.tran 5ms
